@<TRIPOS>MOLECULE
SOL
    4     3     1     0     0
SMALL
No Charge or Current Charge


@<TRIPOS>ATOM
      1 OW          17.3600     8.3900     2.5700 oh         1 SOL       0.000000
      2 HW1         17.7700     7.8100     3.2200 ho         1 SOL       0.000000
      3 HW2         16.4300     8.3100     2.7400 ho         1 SOL       0.000000
      4	MW	    17.3000     8.3100	   2.6700 mw	     1 SOL	 0.000000
@<TRIPOS>BOND
     1     1     2 1   
     2     1     3 1
     2	   1	 4 1
@<TRIPOS>SUBSTRUCTURE
     1 SOL         1 TEMP              0 ****  ****    0 ROOT
